Circuit: * C:\Users\Public\Documents\Altium\Projects\digital_power\4_sw_converter_boost.asc

Direct Newton iteration for .op point succeeded.

Date: Sun Nov 03 01:56:16 2019
Total elapsed time: 24.525 seconds.

tnom = 27
temp = 27
method = modified trap
totiter = 11496514
traniter = 11496510
tranpoints = 3867449
accept = 3207260
rejected = 660189
matrix size = 14
fillins = 0
solver = Normal
Matrix Compiler1: 428 bytes object code size  0.2/0.2/[0.1]
Matrix Compiler2: off  [0.1]/0.3/0.1

