Circuit: * C:\Users\Public\Documents\Altium\Projects\digital_power\Simulation\4_sw_converter_buck.asc

Direct Newton iteration for .op point succeeded.

Date: Sun Apr  5 16:15:52 2020
Total elapsed time: 9.952 seconds.

tnom = 27
temp = 27
method = modified trap
totiter = 3307738
traniter = 3307734
tranpoints = 1107438
accept = 914313
rejected = 193125
matrix size = 14
fillins = 0
solver = Normal
Matrix Compiler1: 428 bytes object code size  0.1/0.1/[0.1]
Matrix Compiler2: off  [0.1]/0.1/0.1

