Circuit: * C:\Users\Public\Documents\Altium\Projects\digital_power\Simulation\LT6992-1.asc

Direct Newton iteration for .op point succeeded.

Date: Sat Aug 08 18:33:53 2020
Total elapsed time: 4.096 seconds.

tnom = 27
temp = 27
method = modified trap
totiter = 335583
traniter = 335572
tranpoints = 103462
accept = 75302
rejected = 28160
matrix size = 48
fillins = 0
solver = Normal
Matrix Compiler1: 1.58 KB object code size  1.4/0.9/[0.5]
Matrix Compiler2: 2.70 KB object code size  1.0/1.7/[0.5]

